
**** 04/03/25 11:24:35 **** PSpice 24.1.0 (23 January 2025) *** ID# 0 ********

 ** Profile: "SCHEMATIC1-PAGE2"  [ C:\Users Files\mjk\Coding\MobileSensorEngineering-JaemokAhn\Week05\Week05-PSpiceFiles\SCHEMATIC1\P


 ****     CIRCUIT DESCRIPTION


******************************************************************************




** Creating circuit file "PAGE2.cir" 
** WARNING: THIS AUTOMATICALLY GENERATED FILE MAY BE OVERWRITTEN BY SUBSEQUENT SIMULATIONS

*Libraries: 
* Profile Libraries :
* Local Libraries :
* From [PSPICE NETLIST] section of C:\Users\mjk\AppData\Roaming\SPB_Data\cdssetup\OrCAD_PSpice\24.1.0\PSpice.ini file:
.lib "nom.lib" 

*Analysis directives: 
.TRAN  0 1000ns 0 
.OPTIONS ADVCONV
.PROBE64 V(alias(*)) I(alias(*)) W(alias(*)) D(alias(*)) NOISE(alias(*)) 
.INC "..\SCHEMATIC1.net" 



**** INCLUDING SCHEMATIC1.net ****
* source WEEK05
V_V3         N15798 GND  
+PULSE 0 5 0 10n 10n 5u 10u
X_U2         GND N15139 V+ V- N15149 LM741
C_C2         N15798 N15139  1n  TC=0,0 
R_R1         N15139 N15149  1k TC=0,0 
C_C3         N16193 N16018  1n  TC=0,0 
R_R2         N16232 N16193  1k TC=0,0 
V_V4         N16232 GND  
+PULSE 0 5 0 10n 10n 5u 10u
X_U3         GND N16193 V+ V- N16018 LM741

**** RESUMING PAGE2.cir ****
.END

**** 04/03/25 11:24:35 **** PSpice 24.1.0 (23 January 2025) *** ID# 0 ********

 ** Profile: "SCHEMATIC1-PAGE2"  [ C:\Users Files\mjk\Coding\MobileSensorEngineering-JaemokAhn\Week05\Week05-PSpiceFiles\SCHEMATIC1\P


 ****     Diode MODEL PARAMETERS


******************************************************************************




               X_U2.x_lm741.dx X_U2.x_lm741.dy X_U3.x_lm741.dx X_U3.x_lm741.dy 
          IS  800.000000E-18  800.000000E-18  800.000000E-18  800.000000E-18 
          RS    1               1.000000E-03    1               1.000000E-03 
         CJO                   10.000000E-12                   10.000000E-12 


**** 04/03/25 11:24:35 **** PSpice 24.1.0 (23 January 2025) *** ID# 0 ********

 ** Profile: "SCHEMATIC1-PAGE2"  [ C:\Users Files\mjk\Coding\MobileSensorEngineering-JaemokAhn\Week05\Week05-PSpiceFiles\SCHEMATIC1\P


 ****     BJT MODEL PARAMETERS


******************************************************************************




               X_U2.x_lm741.qx X_U3.x_lm741.qx 
               NPN             NPN             
       LEVEL    1               1            
          IS  800.000000E-18  800.000000E-18 
          BF   93.75           93.75         
          NF    1               1            
          BR    1               1            
          NR    1               1            
         ISS    0               0            
          RE    0               0            
          RC    0               0            
         CJE    0               0            
         VJE     .75             .75         
         CJC    0               0            
         VJC     .75             .75         
         MJC     .33             .33         
        XCJC    1               1            
         CJS    0               0            
         VJS     .75             .75         
          KF    0               0            
          AF    1               1            
          CN    2.42            2.42         
           D     .87             .87         


Starting pseudo-transient algorithm.

INFO(ORPSIM-16594): To improve Pseudotransient Convergence and Performance, set following options to relax stabilization criteria for capacitor currents and inductor voltages: PTRANABSTOL=1e-5, PTRANVNTOL=1e-4

ERROR -- Convergence problem in transient bias point calculation


  Last node voltages tried were:

 NODE   VOLTAGE     NODE   VOLTAGE     NODE   VOLTAGE     NODE   VOLTAGE


(   V+)   -9.0966  (   V-)  -11.5480  (  GND)  -11.2380  (N15139)  -11.2380     

(N15149)  -11.2380 (N15798)  -11.2380 (N16018)   -9.4074 (N16193)  -11.2380     

(N16232)  -11.2380 (X_U2.x_lm741.6)     .0029                                   

(X_U2.x_lm741.7)  -11.2530            (X_U2.x_lm741.8)  -11.2530                

(X_U2.x_lm741.9)    0.0000            (X_U3.x_lm741.6)    -.0029                

(X_U3.x_lm741.7)   -9.3924            (X_U3.x_lm741.8)   -9.3924                

(X_U3.x_lm741.9)    0.0000            (X_U2.x_lm741.10)  -11.8460               

(X_U2.x_lm741.11)   -9.1364           (X_U2.x_lm741.12)   -9.1359               

(X_U2.x_lm741.13)  -11.8320           (X_U2.x_lm741.14)  -11.8320               

(X_U2.x_lm741.53)  -10.0970           (X_U2.x_lm741.54)  -10.5480               

(X_U2.x_lm741.90)    -.3003           (X_U2.x_lm741.91)   40.0000               

(X_U2.x_lm741.92)  -40.0000           (X_U2.x_lm741.99)  -10.3230               

(X_U3.x_lm741.10)  -11.8460           (X_U3.x_lm741.11)   -9.1362               

(X_U3.x_lm741.12)   -9.1360           (X_U3.x_lm741.13)  -11.8320               

(X_U3.x_lm741.14)  -11.8320           (X_U3.x_lm741.53)  -10.0970               

(X_U3.x_lm741.54)  -10.5480           (X_U3.x_lm741.90)     .3000               

(X_U3.x_lm741.91)   40.0000           (X_U3.x_lm741.92)  -40.0000               

(X_U3.x_lm741.99)  -10.3230           


  These supply currents failed to converge:

    I(X_U2.x_lm741.vc)        =    1.142pA  \    1.609nA
    I(X_U3.x_lm741.ve)        =    1.387pA  \    1.610nA

**** Interrupt ****
